Circuit: * C:\Users\alexi\OneDrive - USherbrooke\Uni\S1\APP6\Draft4.asc

Direct Newton iteration for .op point succeeded.

Date: Sun Dec 04 16:24:39 2022
Total elapsed time: 0.063 seconds.

tnom = 27
temp = 27
method = modified trap
totiter = 4235
traniter = 4232
tranpoints = 2117
accept = 2092
rejected = 25
matrix size = 3
fillins = 0
solver = Normal
Matrix Compiler1:       3 opcodes  0.1/[0.1]/0.1
Matrix Compiler2:      15 opcodes  0.1/[0.1]/0.1

