Circuit: * C:\Users\alexi\OneDrive - USherbrooke\Uni\S1\APP6\Draft2.asc

.OP point found by inspection.

Date: Sun Dec 04 16:05:10 2022
Total elapsed time: 0.105 seconds.

tnom = 27
temp = 27
method = modified trap
totiter = 4198
traniter = 4198
tranpoints = 2100
accept = 2077
rejected = 23
matrix size = 3
fillins = 0
solver = Normal
Matrix Compiler1: 50 bytes object code size  0.1/0.1/[0.1]
Matrix Compiler2:      15 opcodes  0.1/[0.1]/0.1

