Circuit: * C:\Users\alexi\OneDrive - USherbrooke\Uni\S1\APP6\Draft1.asc

.OP point found by inspection.

Date: Sun Dec 04 15:58:58 2022
Total elapsed time: 0.097 seconds.

tnom = 27
temp = 27
method = modified trap
totiter = 4192
traniter = 4192
tranpoints = 2097
accept = 2077
rejected = 20
matrix size = 3
fillins = 0
solver = Normal
Matrix Compiler1:       3 opcodes  0.1/[0.0]/0.1
Matrix Compiler2: off  [0.1]/0.1/0.1

