Circuit: * C:\Users\alexi\OneDrive - USherbrooke\Uni\S1\APP6\Draft5.asc

Direct Newton iteration for .op point succeeded.

Date: Sun Dec 04 16:34:00 2022
Total elapsed time: 0.072 seconds.

tnom = 27
temp = 27
method = modified trap
totiter = 4069
traniter = 4066
tranpoints = 2034
accept = 2034
rejected = 0
matrix size = 4
fillins = 0
solver = Normal
Matrix Compiler1: 100 bytes object code size  0.1/0.1/[0.1]
Matrix Compiler2:      21 opcodes  0.1/[0.1]/0.1

