Circuit: * C:\Users\alexi\OneDrive - USherbrooke\Uni\S1\APP6\Télécommande.asc

WARNING: Less than two connections to node N001.  This node is used by R3.
WARNING: Less than two connections to node NC_02.  This node is used by D3.
Direct Newton iteration for .op point succeeded.

Date: Mon Nov 28 21:36:09 2022
Total elapsed time: 0.074 seconds.

tnom = 27
temp = 27
method = modified trap
totiter = 5696
traniter = 5673
tranpoints = 1795
accept = 1282
rejected = 513
matrix size = 28
fillins = 0
solver = Normal
Matrix Compiler1: 1.36 KB object code size  0.2/0.1/[0.1]
Matrix Compiler2: 2.55 KB object code size  0.2/0.2/[0.2]

