Circuit: * C:\Users\alexi\OneDrive - USherbrooke\Uni\S1\APP6\Examen formatif\Pratique\Draft1.asc

Direct Newton iteration for .op point succeeded.

Date: Tue Dec 06 13:34:12 2022
Total elapsed time: 0.057 seconds.

tnom = 27
temp = 27
method = modified trap
totiter = 689
traniter = 686
tranpoints = 344
accept = 317
rejected = 27
matrix size = 3
fillins = 0
solver = Normal
Matrix Compiler1: 50 bytes object code size  0.1/0.1/[0.1]
Matrix Compiler2:      15 opcodes  0.1/[0.1]/0.1

